dss/import/capas-pablo/Formato-interfaz/urbano/Load.dss
New Load.carga_idseta_10 phases=3 bus1=x_10.1.2.3.0 kv=0.38 kw=159.93389316287266 pf=0.9 status=variable model=1 CVRwatts=0.8 CVRvars=3.0 class=1 daily=334 conn=wye
New Load.carga_idseta_12 phases=3 bus1=x_12.1.2.3.0 kv=0.38 kw=217.1546362164412 pf=0.9 status=variable model=1 CVRwatts=0.8 CVRvars=3.0 class=1 daily=334 conn=wye
New Load.carga_idseta_128 phases=3 bus1=x_128.1.2.3.0 kv=0.38 kw=37.315652981576434 pf=0.9 status=variable model=1 CVRwatts=0.8 CVRvars=3.0 class=1 daily=334 conn=wye
New Load.carga_idseta_129 phases=3 bus1=x_129.1.2.3.0 kv=0.38 kw=38.34650093608925 pf=0.9 status=variable model=1 CVRwatts=0.8 CVRvars=3.0 class=1 daily=334 conn=wye
New Load.carga_idseta_13 phases=3 bus1=x_13.1.2.3.0 kv=0.38 kw=123.03167167014595 pf=0.9 status=variable model=1 CVRwatts=0.8 CVRvars=3.0 class=1 daily=334 conn=wye
New Load.carga_idseta_130 phases=3 bus1=x_130.1.2.3.0 kv=0.38 kw=34.50585314310512 pf=0.9 status=variable model=1 CVRwatts=0.8 CVRvars=3.0 class=1 daily=334 conn=wye
New Load.carga_idseta_131 phases=3 bus1=x_131.1.2.3.0 kv=0.38 kw=22.604266810124443 pf=0.9 status=variable model=1 CVRwatts=0.8 CVRvars=3.0 class=1 daily=334 conn=wye
New Load.carga_idseta_132 phases=3 bus1=x_132.1.2.3.0 kv=0.38 kw=44.105148568023765 pf=0.9 status=variable model=1 CVRwatts=0.8 CVRvars=3.0 class=1 daily=334 conn=wye
New Load.carga_idseta_14 phases=3 bus1=x_14.1.2.3.0 kv=0.38 kw=327.98160125210995 pf=0.9 status=variable model=1 CVRwatts=0.8 CVRvars=3.0 class=1 daily=334 conn=wye
New Load.carga_idseta_15 phases=3 bus1=x_15.1.2.3.0 kv=0.38 kw=146.20768313794474 pf=0.9 status=variable model=1 CVRwatts=0.8 CVRvars=3.0 class=1 daily=334 conn=wye
New Load.carga_idseta_2943 phases=3 bus1=x_2943.1.2.3.0 kv=0.38 kw=145.64501657521188 pf=0.9 status=variable model=1 CVRwatts=0.8 CVRvars=3.0 class=1 daily=334 conn=wye
New Load.carga_idseta_3 phases=3 bus1=x_3.1.2.3.0 kv=0.38 kw=241.5266607000316 pf=0.9 status=variable model=1 CVRwatts=0.8 CVRvars=3.0 class=1 daily=334 conn=wye
New Load.carga_idseta_3009 phases=3 bus1=x_3009.1.2.3.0 kv=0.38 kw=70.40365366194472 pf=0.9 status=variable model=1 CVRwatts=0.8 CVRvars=3.0 class=1 daily=334 conn=wye
New Load.carga_idseta_335 phases=3 bus1=x_335.1.2.3.0 kv=0.38 kw=9.625178106563116 pf=0.9 status=variable model=1 CVRwatts=0.8 CVRvars=3.0 class=1 daily=335 conn=wye
New Load.carga_idseta_47 phases=3 bus1=x_47.1.2.3.0 kv=0.38 kw=56.31762244744307 pf=0.9 status=variable model=1 CVRwatts=0.8 CVRvars=3.0 class=1 daily=334 conn=wye
New Load.carga_idseta_57 phases=3 bus1=x_57.1.2.3.0 kv=0.38 kw=243.6380058172775 pf=0.9 status=variable model=1 CVRwatts=0.8 CVRvars=3.0 class=1 daily=334 conn=wye
New Load.carga_idseta_59 phases=3 bus1=x_59.1.2.3.0 kv=0.38 kw=212.0150645088005 pf=0.9 status=variable model=1 CVRwatts=0.8 CVRvars=3.0 class=1 daily=334 conn=wye
New Load.carga_idseta_6 phases=3 bus1=x_6.1.2.3.0 kv=0.38 kw=184.79519291840447 pf=0.9 status=variable model=1 CVRwatts=0.8 CVRvars=3.0 class=1 daily=334 conn=wye
New Load.carga_idseta_60 phases=3 bus1=x_60.1.2.3.0 kv=0.38 kw=162.05408600795283 pf=0.9 status=variable model=1 CVRwatts=0.8 CVRvars=3.0 class=1 daily=334 conn=wye
New Load.carga_idseta_69 phases=3 bus1=x_69.1.2.3.0 kv=0.38 kw=191.28420621252985 pf=0.9 status=variable model=1 CVRwatts=0.8 CVRvars=3.0 class=1 daily=334 conn=wye
New Load.carga_idseta_7 phases=3 bus1=x_7.1.2.3.0 kv=0.38 kw=198.6722628188478 pf=0.9 status=variable model=1 CVRwatts=0.8 CVRvars=3.0 class=1 daily=334 conn=wye
New Load.carga_idseta_70 phases=3 bus1=x_70.1.2.3.0 kv=0.38 kw=108.83322946191574 pf=0.9 status=variable model=1 CVRwatts=0.8 CVRvars=3.0 class=1 daily=334 conn=wye
New Load.carga_idseta_71 phases=3 bus1=x_71.1.2.3.0 kv=0.38 kw=164.72267488700095 pf=0.9 status=variable model=1 CVRwatts=0.8 CVRvars=3.0 class=1 daily=334 conn=wye
New Load.carga_idseta_72 phases=3 bus1=x_72.1.2.3.0 kv=0.38 kw=104.04234793141204 pf=0.9 status=variable model=1 CVRwatts=0.8 CVRvars=3.0 class=1 daily=334 conn=wye
New Load.carga_idseta_74 phases=3 bus1=x_74.1.2.3.0 kv=0.38 kw=90.21828285209578 pf=0.9 status=variable model=1 CVRwatts=0.8 CVRvars=3.0 class=1 daily=334 conn=wye
New Load.carga_idseta_75 phases=3 bus1=x_75.1.2.3.0 kv=0.38 kw=73.99065299936649 pf=0.9 status=variable model=1 CVRwatts=0.8 CVRvars=3.0 class=1 daily=334 conn=wye
New Load.carga_idseta_76 phases=3 bus1=x_76.1.2.3.0 kv=0.38 kw=159.33045366081134 pf=0.9 status=variable model=1 CVRwatts=0.8 CVRvars=3.0 class=1 daily=334 conn=wye
New Load.carga_idseta_79 phases=3 bus1=x_79.1.2.3.0 kv=0.38 kw=93.82261068873213 pf=0.9 status=variable model=1 CVRwatts=0.8 CVRvars=3.0 class=1 daily=334 conn=wye
New Load.carga_idseta_8 phases=3 bus1=x_8.1.2.3.0 kv=0.38 kw=86.18176185857769 pf=0.9 status=variable model=1 CVRwatts=0.8 CVRvars=3.0 class=1 daily=334 conn=wye
New Load.carga_idseta_80 phases=3 bus1=x_80.1.2.3.0 kv=0.38 kw=129.77211129464024 pf=0.9 status=variable model=1 CVRwatts=0.8 CVRvars=3.0 class=1 daily=334 conn=wye
New Load.carga_idseta_81 phases=3 bus1=x_81.1.2.3.0 kv=0.38 kw=162.34129059258257 pf=0.9 status=variable model=1 CVRwatts=0.8 CVRvars=3.0 class=1 daily=334 conn=wye
New Load.carga_idseta_82 phases=3 bus1=x_82.1.2.3.0 kv=0.38 kw=34.66107572312859 pf=0.9 status=variable model=1 CVRwatts=0.8 CVRvars=3.0 class=1 daily=334 conn=wye
New Load.carga_idseta_84 phases=3 bus1=x_84.1.2.3.0 kv=0.38 kw=56.49294608655548 pf=0.9 status=variable model=1 CVRwatts=0.8 CVRvars=3.0 class=1 daily=334 conn=wye
New Load.carga_idseta_840 phases=3 bus1=x_840.1.2.3.0 kv=0.38 kw=45.67896363963287 pf=0.9 status=variable model=1 CVRwatts=0.8 CVRvars=3.0 class=1 daily=334 conn=wye
New Load.carga_idseta_89 phases=3 bus1=x_89.1.2.3.0 kv=0.38 kw=118.82865437888007 pf=0.9 status=variable model=1 CVRwatts=0.8 CVRvars=3.0 class=1 daily=334 conn=wye
New Load.carga_idseta_9 phases=3 bus1=x_9.1.2.3.0 kv=0.38 kw=168.31069354790588 pf=0.9 status=variable model=1 CVRwatts=0.8 CVRvars=3.0 class=1 daily=334 conn=wye
New Load.carga_idseta_91 phases=3 bus1=x_91.1.2.3.0 kv=0.38 kw=61.96671319140199 pf=0.9 status=variable model=1 CVRwatts=0.8 CVRvars=3.0 class=1 daily=334 conn=wye
New Load.carga_idseta_92 phases=3 bus1=x_92.1.2.3.0 kv=0.38 kw=5.510462750242123 pf=0.9 status=variable model=1 CVRwatts=0.8 CVRvars=3.0 class=1 daily=334 conn=wye
New Load.carga_idseta_93 phases=3 bus1=x_93.1.2.3.0 kv=0.38 kw=3.3291104961692146 pf=0.9 status=variable model=1 CVRwatts=0.8 CVRvars=3.0 class=1 daily=334 conn=wye
New Load.carga_idseta_96 phases=3 bus1=x_96.1.2.3.0 kv=0.38 kw=157.91155537218074 pf=0.9 status=variable model=1 CVRwatts=0.8 CVRvars=3.0 class=1 daily=334 conn=wye
